118

C         -0.46436       -0.83815        3.70159
C          0.22842       -2.10608        4.18889
C         -0.66322       -3.34495        4.11900
H         -1.61896       -3.12426        4.59993
H         -0.18804       -4.16018        4.66749
C         -0.90499       -3.79497        2.67338
N         -2.02982       -4.69386        2.54459
C         -3.26457       -4.18845        2.54872
C         -4.49741       -4.84894        2.49783
C         -5.57278       -3.98674        2.50768
C         -5.23542       -2.63098        2.57109
C         -6.10942       -1.55291        2.65063
C         -5.77237       -0.21463        2.67653
C         -6.58509        0.94842        2.83390
N         -5.94939        2.09229        2.72677
C         -4.64459        1.97936        2.53804
C         -3.75272        3.03364        2.44596
C         -2.38043        2.80303        2.36573
N         -1.24329        2.61885        2.32657
C         -4.17891        4.36755        2.45487
N         -4.48857        5.47481        2.45128
S         -4.09840        0.30138        2.46838
S         -3.48766       -2.46707        2.60138
C         -8.02028        1.01925        3.30115
C         -8.59316        2.39236        2.93245
H         -7.94585        3.18635        3.29179
H         -8.67844        2.48685        1.85440
H         -9.58073        2.51225        3.37224
C         -7.96185        0.89771        4.83492
H         -7.37267        1.70924        5.25557
H         -7.51209       -0.04848        5.13155
H         -8.96816        0.94980        5.24393
C         -8.94155       -0.06813        2.74003
H         -8.88647       -0.98432        3.32367
H         -9.97225        0.27843        2.78040
H         -8.70260       -0.28830        1.70516
H         -7.15522       -1.81403        2.69180
H         -6.59799       -4.31284        2.46859
H         -4.59503       -5.91780        2.45180
C         -1.79895       -6.12118        2.53856
H         -2.49561       -6.57950        1.83469
C         -1.96115       -6.76867        3.91680
C         -1.65208       -8.26520        3.87180
C         -2.66925       -9.06907        3.06950
H         -3.67626       -8.90174        3.44738
H         -2.64487       -8.79966        2.01747
H         -2.45074      -10.13177        3.14427
H         -1.63236       -8.64436        4.89588
H         -0.65725       -8.40944        3.44575
H         -1.27544       -6.28660        4.61505
H         -2.97858       -6.61108        4.28244
H         -0.78007       -6.28937        2.18665
H         -1.10000       -2.91779        2.04948
H         -0.01317       -4.29906        2.29761
H          1.13226       -2.28734        3.60374
H          0.53220       -1.96139        5.22810
H          0.14532        0.03330        3.92398
H         -0.63980       -0.85714        2.62869
H         -1.42486       -0.71318        4.19622
C         -1.20423        6.54824        3.03956
C         -0.64331        5.62337        4.11313
C          0.86060        5.38210        3.97652
H          1.18938        4.71744        4.77880
H          1.38582        6.33346        4.08403
C          1.21218        4.74461        2.62870
N          2.58254        4.27974        2.57224
C          2.90659        2.98167        2.56412
C          2.07625        1.85733        2.51366
C          2.76634        0.66240        2.49894
C          4.15401        0.78777        2.55985
C          5.20033       -0.12479        2.64467
C          5.16672       -1.50233        2.65490
C          6.25285       -2.41666        2.81259
N          5.93286       -3.68267        2.69716
C          4.64469       -3.91560        2.50093
C          4.10452       -5.18518        2.40328
C          2.73630       -5.42827        2.31082
N          1.60764       -5.65691        2.26090
C          4.94089       -6.31158        2.42177
N          5.60036       -7.25277        2.42264
S          3.68381       -2.43196        2.43303
S          4.57683        2.50190        2.59593
C          7.65844       -2.12393        3.28878
C          8.55272       -3.31899        2.93764
H          9.53545       -3.19019        3.38566
H          8.11728       -4.24531        3.29943
H          8.66834       -3.39804        1.86060
C          7.55675       -2.00956        4.82095
H          6.88803       -1.19880        5.10566
H          8.54165       -1.81345        5.23826
H          7.17830       -2.93695        5.24474
C          8.30232       -0.85096        2.72660
H          8.05247        0.02691        3.31844
H          9.38499       -0.95756        2.75392
H          8.01046       -0.68328        1.69533
H          6.17725        0.32545        2.72139
H          2.27682       -0.29308        2.45160
H          1.00412        1.91367        2.47651
C          3.62727        5.27853        2.52554
H          4.39633        4.93673        1.82368
C          4.30846        5.55593        3.87082
C          5.62569        6.30797        3.67832
C          5.43861        7.70091        3.08820
H          5.02930        7.65037        2.08318
H          4.76616        8.29195        3.70638
H          6.39422        8.21718        3.03382
H          6.27954        5.72280        3.02732
H          6.11889        6.39660        4.64852
H          3.64682        6.13509        4.51586
H          4.51434        4.60643        4.36817
H          3.18758        6.19735        2.13567
H          0.53288        3.91474        2.43851
H          1.07774        5.48558        1.83700
H         -0.83399        6.05789        5.09698
H         -1.16339        4.66567        4.06692
H         -1.15019        6.08008        2.06060
H         -2.25049        6.76484        3.23954
H         -0.65501        7.48769        3.00945
