11
Total charge: 2 ; Unpaired electrons: 0 ; Generated by mindlessgen-v0.4.1.dev46+g6bb74ea
H        3.6001159   -2.0340450   -3.6671890
H       -1.1241429    1.5839788   -2.7987866
H       -0.0824719   -2.3825386    1.4499539
C       -0.7865970   -0.5698500   -1.0854635
C       -0.6991031   -1.0348168    0.2164973
N        1.5646446   -0.6494019   -3.5423105
O       -0.0381658   -2.1331072    0.4985739
Cl       3.2310908   -1.0859557   -2.8102061
Cl      -1.4739991   -0.1819694    1.5016066
I       -1.8758553    1.2630327   -1.3608479
I       -0.0004324   -1.6901102   -2.7116564
